CAT-13d
  xed2sdf_05210316543D
 
 43 46  0  0  1  0  0  0  0  0999 V2000
   15.4125   -0.6168   -1.5039 C   0  0  0  0  0  0  0  0  0  0  0  0
   14.3652   -2.2938    2.6004 N   0  0  0  0  0  0  0  0  0  0  0  0
   15.8080    0.4004   -2.4044 C   0  0  0  0  0  0  0  0  0  0  0  0
   15.2426    4.2511    1.1245 Cl  0  0  0  0  0  0  0  0  0  0  0  0
   15.3463   -5.2332   -2.4204 C   0  0  0  0  0  0  0  0  0  0  0  0
   14.9444    4.0910   -2.8732 C   0  0  0  0  0  0  0  0  0  0  0  0
   13.4812   -2.9579   -0.7768 C   0  0  0  0  0  0  0  0  0  0  0  0
   15.5647    2.3288   -0.7836 C   0  0  0  0  0  0  0  0  0  0  0  0
   15.5587    1.8326   -2.1090 C   0  0  0  0  0  0  0  0  0  0  0  0
   16.1894   -2.3496   -3.0284 C   0  0  0  0  0  0  0  0  0  0  0  0
   15.0192   -3.0683   -0.8497 C   0  0  0  0  0  0  0  0  0  0  0  0
   16.4013    0.0015   -3.6209 C   0  0  0  0  0  0  0  0  0  0  0  0
   15.5634   -1.9948   -1.8100 C   0  0  0  0  0  0  0  0  0  0  0  0
   14.9243    4.5522   -1.5465 C   0  0  0  0  0  0  0  0  0  0  0  0
   11.7860   -2.3271    1.0538 C   0  0  0  0  0  0  0  0  0  0  0  0
   15.5900   -4.4689   -1.1332 C   0  0  0  0  0  0  0  0  0  0  0  0
   12.6571   -3.1079   -1.6844 O   0  0  0  0  0  0  0  0  0  0  0  0
   13.1444   -2.5995    0.5661 N   0  0  0  0  0  0  0  0  0  0  0  0
   15.2649    2.7464   -3.1489 C   0  0  0  0  0  0  0  0  0  0  0  0
   16.7355   -4.7539   -2.0801 C   0  0  0  0  0  0  0  0  0  0  0  0
   15.3469   -2.7616    0.5345 N   0  3  0  0  0  0  0  0  0  0  0  0
   16.6159   -1.3547   -3.9204 C   0  0  0  0  0  0  0  0  0  0  0  0
   14.2729   -2.5333    1.2874 C   0  0  0  0  0  0  0  0  0  0  0  0
   15.2486    3.6732   -0.5009 C   0  0  0  0  0  0  0  0  0  0  0  0
   15.2372    2.4076   -4.1742 H   0  0  0  0  0  0  0  0  0  0  0  0
   11.0292   -2.7766    0.4106 H   0  0  0  0  0  0  0  0  0  0  0  0
   13.5838   -2.0392    3.2009 H   0  0  0  0  0  0  0  0  0  0  0  0
   16.6981    0.7398   -4.3492 H   0  0  0  0  0  0  0  0  0  0  0  0
   15.8089    1.6730    0.0351 H   0  0  0  0  0  0  0  0  0  0  0  0
   15.1570   -6.3019   -2.3389 H   0  0  0  0  0  0  0  0  0  0  0  0
   17.4697   -5.4962   -1.7713 H   0  0  0  0  0  0  0  0  0  0  0  0
   15.2860   -2.2903    3.0398 H   0  0  0  0  0  0  0  0  0  0  0  0
   14.9319   -0.3282   -0.5818 H   0  0  0  0  0  0  0  0  0  0  0  0
   11.6524   -2.7177    2.0625 H   0  0  0  0  0  0  0  0  0  0  0  0
   17.1286   -3.9418   -2.6801 H   0  0  0  0  0  0  0  0  0  0  0  0
   16.3098   -2.7539    0.8773 H   0  0  0  0  0  0  0  0  0  0  0  0
   11.6181   -1.2506    1.0770 H   0  0  0  0  0  0  0  0  0  0  0  0
   15.5716   -5.0932   -0.2434 H   0  0  0  0  0  0  0  0  0  0  0  0
   17.0896   -1.6334   -4.8519 H   0  0  0  0  0  0  0  0  0  0  0  0
   16.3451   -3.3789   -3.3174 H   0  0  0  0  0  0  0  0  0  0  0  0
   14.6583    5.5769   -1.3284 H   0  0  0  0  0  0  0  0  0  0  0  0
   14.8362   -4.7371   -3.2436 H   0  0  0  0  0  0  0  0  0  0  0  0
   14.6865    4.7672   -3.6749 H   0  0  0  0  0  0  0  0  0  0  0  0
 11 13  1  0
 14 41  1  0
 16 38  1  0
 19  6  2  0
  6 43  1  0
  8 29  1  0
  5 30  1  0
 10 40  1  0
  2 32  1  0
 12 28  1  0
 24  8  1  0
  5 42  1  0
 11 16  1  0
 14 24  2  0
 16  5  1  0
 11  7  1  0
  9  8  2  0
 20 35  1  0
 10 22  1  0
  3  9  1  0
 13 10  2  0
 15 18  1  0
 19 25  1  0
  2 27  1  0
 23  2  1  0
 21 11  1  0
 21 36  1  0
  3  1  2  0
 22 12  2  0
 24  4  1  0
 15 37  1  0
  1 33  1  0
 22 39  1  0
 15 34  1  0
 13  1  1  0
  5 20  1  0
  9 19  1  0
 18 23  1  0
 16 20  1  0
 12  3  1  0
  6 14  1  0
 18  7  1  0
 15 26  1  0
  7 17  2  0
 20 31  1  0
 23 21  2  0
M  CHG  1  21   1
M  END
$$$$
