30
  xed2sdf_05210316543D
 
 51 54  0  0  0  0  0  0  0  0999 V2000
    1.3901   29.1077    6.7935 C   0  0  0  0  0  0  0  0  0  0  0  0
   -1.6911   31.9130    8.0794 C   0  0  0  0  0  0  0  0  0  0  0  0
   -0.7437   26.3748    8.8319 C   0  0  0  0  0  0  0  0  0  0  0  0
   -1.3142   25.5567    9.9914 C   0  0  0  0  0  0  0  0  0  0  0  0
   -1.1214   24.0589    9.6854 C   0  0  0  0  0  0  0  0  0  0  0  0
   -1.5824   23.1795   10.8502 C   0  0  0  0  0  0  0  0  0  0  0  0
   -0.8551   23.5463   12.1491 C   0  0  0  0  0  0  0  0  0  0  0  0
   -1.0780   25.0277   12.4857 C   0  0  0  0  0  0  0  0  0  0  0  0
   -0.6321   25.9351   11.3273 C   0  0  0  0  0  0  0  0  0  0  0  0
    4.6903   25.7129    5.8380 C   0  0  0  0  0  0  0  0  0  0  0  0
    4.6667   25.1395    7.1233 C   0  0  0  0  0  0  0  0  0  0  0  0
    3.9496   25.7658    8.1576 C   0  0  0  0  0  0  0  0  0  0  0  0
    3.2460   26.9556    7.8985 C   0  0  0  0  0  0  0  0  0  0  0  0
    0.6302   28.2313    7.4508 N   0  0  0  0  0  0  0  0  0  0  0  0
   -0.4898   28.6252    8.0923 C   0  0  0  0  0  0  0  0  0  0  0  0
   -1.1796   27.7315    8.8832 O   0  0  0  0  0  0  0  0  0  0  0  0
   -0.8660   29.9818    8.0000 C   0  0  0  0  0  0  0  0  0  0  0  0
   -1.9251   30.7129    8.5212 N   0  0  0  0  0  0  0  0  0  0  0  0
   -0.5542   32.0464    7.3306 N   0  0  0  0  0  0  0  0  0  0  0  0
   -0.0249   30.7863    7.2610 C   0  0  0  0  0  0  0  0  0  0  0  0
    1.1172   30.4049    6.6113 N   0  0  0  0  0  0  0  0  0  0  0  0
    2.5827   28.6807    6.3360 N   0  0  0  0  0  0  0  0  0  0  0  0
    3.2365   27.5251    6.6032 C   0  0  0  0  0  0  0  0  0  0  0  0
    3.9871   26.9068    5.5819 C   0  0  0  0  0  0  0  0  0  0  0  0
    5.4311   23.8790    7.4001 S   0  0  0  0  0  0  0  0  0  0  0  0
    5.8108   23.2938    6.1199 O   0  0  0  0  0  0  0  0  0  0  0  0
    6.4234   24.1721    8.4274 O   0  0  0  0  0  0  0  0  0  0  0  0
    4.4921   22.8906    8.0257 C   0  0  0  0  0  0  0  0  0  0  0  0
   -2.3542   32.7337    8.2866 H   0  0  0  0  0  0  0  0  0  0  0  0
    0.3421   26.2813    8.8885 H   0  0  0  0  0  0  0  0  0  0  0  0
   -1.0533   25.9544    7.8735 H   0  0  0  0  0  0  0  0  0  0  0  0
   -2.3846   25.7536   10.0698 H   0  0  0  0  0  0  0  0  0  0  0  0
   -1.6745   23.7903    8.7850 H   0  0  0  0  0  0  0  0  0  0  0  0
   -0.0713   23.8531    9.4740 H   0  0  0  0  0  0  0  0  0  0  0  0
   -2.6489   23.3294   10.9949 H   0  0  0  0  0  0  0  0  0  0  0  0
   -1.4335   22.1247   10.6147 H   0  0  0  0  0  0  0  0  0  0  0  0
   -1.2175   22.9242   12.9680 H   0  0  0  0  0  0  0  0  0  0  0  0
    0.2126   23.3446   12.0504 H   0  0  0  0  0  0  0  0  0  0  0  0
   -2.1337   25.2025   12.7004 H   0  0  0  0  0  0  0  0  0  0  0  0
   -0.5350   25.2900   13.3929 H   0  0  0  0  0  0  0  0  0  0  0  0
    0.4518   25.8639   11.2223 H   0  0  0  0  0  0  0  0  0  0  0  0
   -0.8463   26.9766   11.5731 H   0  0  0  0  0  0  0  0  0  0  0  0
    5.2554   25.2427    5.0475 H   0  0  0  0  0  0  0  0  0  0  0  0
    3.9402   25.3397    9.1502 H   0  0  0  0  0  0  0  0  0  0  0  0
    2.7083   27.4238    8.7079 H   0  0  0  0  0  0  0  0  0  0  0  0
   -0.1784   32.8770    6.8845 H   0  0  0  0  0  0  0  0  0  0  0  0
    3.0167   29.2655    5.6333 H   0  0  0  0  0  0  0  0  0  0  0  0
    4.0234   27.3389    4.5933 H   0  0  0  0  0  0  0  0  0  0  0  0
    5.0598   21.9809    8.2212 H   0  0  0  0  0  0  0  0  0  0  0  0
    4.1195   23.3347    8.9487 H   0  0  0  0  0  0  0  0  0  0  0  0
    3.6856   22.7126    7.3144 H   0  0  0  0  0  0  0  0  0  0  0  0
 14  1  2  0
 21  1  1  0
 22  1  1  0
 18  2  2  0
 19  2  1  0
 29  2  1  0
  4  3  1  0
 16  3  1  0
 30  3  1  0
 31  3  1  0
  5  4  1  0
  9  4  1  0
 32  4  1  0
  6  5  1  0
 33  5  1  0
 34  5  1  0
  7  6  1  0
 35  6  1  0
 36  6  1  0
  8  7  1  0
 37  7  1  0
 38  7  1  0
  9  8  1  0
 39  8  1  0
 40  8  1  0
 41  9  1  0
 42  9  1  0
 11 10  2  0
 24 10  1  0
 43 10  1  0
 12 11  1  0
 25 11  1  0
 13 12  2  0
 44 12  1  0
 23 13  1  0
 45 13  1  0
 15 14  1  0
 16 15  1  0
 17 15  2  0
 18 17  1  0
 20 17  1  0
 20 19  1  0
 46 19  1  0
 21 20  2  0
 23 22  1  0
 47 22  1  0
 24 23  2  0
 48 24  1  0
 26 25  2  0
 27 25  2  0
 28 25  1  0
 49 28  1  0
 50 28  1  0
 51 28  1  0
M  END
$$$$
